Circuit: * C:\Users\User\OneDrive - Queensland University of Technology\2020 QUTMS\2021 Shutdown Redesign\SHDN21-DAC-LTSpiceSimulation.asc

Direct Newton iteration for .op point succeeded.

Date: Thu Dec 31 16:25:53 2020
Total elapsed time: 0.125 seconds.

tnom = 27
temp = 27
method = modified trap
totiter = 7529
traniter = 7524
tranpoints = 3627
accept = 3200
rejected = 427
matrix size = 19
fillins = 0
solver = Normal
Matrix Compiler1: 598 bytes object code size  0.2/0.2/[0.1]
Matrix Compiler2: 1.36 KB object code size  0.2/0.4/[0.1]

