Circuit: * C:\Users\User\OneDrive - Queensland University of Technology\2020 QUTMS\2021 Shutdown Redesign\Draft1.asc

.OP point found by inspection.

Date: Thu Dec 31 17:32:49 2020
Total elapsed time: 0.159 seconds.

tnom = 27
temp = 27
method = modified trap
totiter = 2464
traniter = 2464
tranpoints = 1233
accept = 1210
rejected = 23
matrix size = 3
fillins = 0
solver = Normal
Matrix Compiler1:       3 opcodes  0.1/[0.1]/0.1
Matrix Compiler2: off  [0.1]/0.1/0.1

